plots/csv/rotor_angle_dev_bus12_julia.csv
t_s,rotor_angle_dev_rad,bus_voltage_angle_dev_rad,angle_source,angle_is_exact_bus_voltage
0.0,0.0,0.0,Vmag_get_voltage_magnitude_series__angle_get_voltage_angle_series,true
0.01,3.698430450782559e-16,3.698430450782559e-16,Vmag_get_voltage_magnitude_series__angle_get_voltage_angle_series,true
0.02,2.5812685322535187e-16,2.5812685322535187e-16,Vmag_get_voltage_magnitude_series__angle_get_voltage_angle_series,true
0.03,-2.8518853945060115e-16,-2.8518853945060115e-16,Vmag_get_voltage_magnitude_series__angle_get_voltage_angle_series,true
0.04,1.880440247958963e-16,1.880440247958963e-16,Vmag_get_voltage_magnitude_series__angle_get_voltage_angle_series,true
0.05,3.753941602013903e-16,3.753941602013903e-16,Vmag_get_voltage_magnitude_series__angle_get_voltage_angle_series,true
0.06,2.7755575615627373e-17,2.7755575615627373e-17,Vmag_get_voltage_magnitude_series__angle_get_voltage_angle_series,true
0.07,3.705369344686372e-16,3.705369344686372e-16,Vmag_get_voltage_magnitude_series__angle_get_voltage_angle_series,true
0.08,-3.455569164146317e-16,-3.455569164146317e-16,Vmag_get_voltage_magnitude_series__angle_get_voltage_angle_series,true
0.09,2.768618667659029e-16,2.768618667659029e-16,Vmag_get_voltage_magnitude_series__angle_get_voltage_angle_series,true
0.1,-3.642919299551295e-16,-3.642919299551295e-16,Vmag_get_voltage_magnitude_series__angle_get_voltage_angle_series,true
0.11,-0.0013876578099323226,-0.0013876578099323226,Vmag_get_voltage_magnitude_series__angle_get_voltage_angle_series,true
0.12,-0.0014739384579072316,-0.0014739384579072316,Vmag_get_voltage_magnitude_series__angle_get_voltage_angle_series,true
0.13,-0.0013371974235345252,-0.0013371974235345252,Vmag_get_voltage_magnitude_series__angle_get_voltage_angle_series,true
0.14,-0.0013434189433235942,-0.0013434189433235942,Vmag_get_voltage_magnitude_series__angle_get_voltage_angle_series,true
0.15,-0.0013776519424871193,-0.0013776519424871193,Vmag_get_voltage_magnitude_series__angle_get_voltage_angle_series,true
0.16,-0.0014600585011925158,-0.0014600585011925158,Vmag_get_voltage_magnitude_series__angle_get_voltage_angle_series,true
0.17,-0.0015702303032159967,-0.0015702303032159967,Vmag_get_voltage_magnitude_series__angle_get_voltage_angle_series,true
0.18,-0.0017041703585634245,-0.0017041703585634245,Vmag_get_voltage_magnitude_series__angle_get_voltage_angle_series,true
0.19,-0.001853698975015174,-0.001853698975015174,Vmag_get_voltage_magnitude_series__angle_get_voltage_angle_series,true
0.2,-0.0020166031051750545,-0.0020166031051750545,Vmag_get_voltage_magnitude_series__angle_get_voltage_angle_series,true
0.21,-0.002190345804561274,-0.002190345804561274,Vmag_get_voltage_magnitude_series__angle_get_voltage_angle_series,true
0.22,-0.0023735237730768788,-0.0023735237730768788,Vmag_get_voltage_magnitude_series__angle_get_voltage_angle_series,true
0.23,-0.00256483883441698,-0.00256483883441698,Vmag_get_voltage_magnitude_series__angle_get_voltage_angle_series,true
0.24,-0.002763422881582284,-0.002763422881582284,Vmag_get_voltage_magnitude_series__angle_get_voltage_angle_series,true
0.25,-0.0029685947080273995,-0.0029685947080273995,Vmag_get_voltage_magnitude_series__angle_get_voltage_angle_series,true
0.26,-0.0031798758917992364,-0.0031798758917992364,Vmag_get_voltage_magnitude_series__angle_get_voltage_angle_series,true
0.27,-0.003396916313317457,-0.003396916313317457,Vmag_get_voltage_magnitude_series__angle_get_voltage_angle_series,true
0.28,-0.0036194715247385473,-0.0036194715247385473,Vmag_get_voltage_magnitude_series__angle_get_voltage_angle_series,true
0.29,-0.0038473663632539404,-0.0038473663632539404,Vmag_get_voltage_magnitude_series__angle_get_voltage_angle_series,true
0.3,-0.004080472156703436,-0.004080472156703436,Vmag_get_voltage_magnitude_series__angle_get_voltage_angle_series,true
0.31,-0.004318683993882833,-0.004318683993882833,Vmag_get_voltage_magnitude_series__angle_get_voltage_angle_series,true
0.32,-0.004561902939764871,-0.004561902939764871,Vmag_get_voltage_magnitude_series__angle_get_voltage_angle_series,true
0.33,-0.004810021432838961,-0.004810021432838961,Vmag_get_voltage_magnitude_series__angle_get_voltage_angle_series,true
0.34,-0.005062910941926135,-0.005062910941926135,Vmag_get_voltage_magnitude_series__angle_get_voltage_angle_series,true
0.35,-0.005320413338440014,-0.005320413338440014,Vmag_get_voltage_magnitude_series__angle_get_voltage_angle_series,true
0.36,-0.0055823343417228995,-0.0055823343417228995,Vmag_get_voltage_magnitude_series__angle_get_voltage_angle_series,true
0.37,-0.005848439621412778,-0.005848439621412778,Vmag_get_voltage_magnitude_series__angle_get_voltage_angle_series,true
0.38,-0.006118453581361629,-0.006118453581361629,Vmag_get_voltage_magnitude_series__angle_get_voltage_angle_series,true
0.39,-0.00639205911644981,-0.00639205911644981,Vmag_get_voltage_magnitude_series__angle_get_voltage_angle_series,true
0.4,-0.00666890035403388,-0.00666890035403388,Vmag_get_voltage_magnitude_series__angle_get_voltage_angle_series,true
0.41,-0.0069485852934497196,-0.0069485852934497196,Vmag_get_voltage_magnitude_series__angle_get_voltage_angle_series,true
0.42,-0.00723069037074294,-0.00723069037074294,Vmag_get_voltage_magnitude_series__angle_get_voltage_angle_series,true
0.43,-0.007514765367055347,-0.007514765367055347,Vmag_get_voltage_magnitude_series__angle_get_voltage_angle_series,true
0.44,-0.007800338086551544,-0.007800338086551544,Vmag_get_voltage_magnitude_series__angle_get_voltage_angle_series,true
0.45,-0.008086920236259183,-0.008086920236259183,Vmag_get_voltage_magnitude_series__angle_get_voltage_angle_series,true
0.46,-0.008374012108501184,-0.008374012108501184,Vmag_get_voltage_magnitude_series__angle_get_voltage_angle_series,true
0.47,-0.008661107838325261,-0.008661107838325261,Vmag_get_voltage_magnitude_series__angle_get_voltage_angle_series,true
0.48,-0.008947700003324318,-0.008947700003324318,Vmag_get_voltage_magnitude_series__angle_get_voltage_angle_series,true
0.49,-0.00923328387146766,-0.00923328387146766,Vmag_get_voltage_magnitude_series__angle_get_voltage_angle_series,true
0.5,-0.009517361536351906,-0.009517361536351906,Vmag_get_voltage_magnitude_series__angle_get_voltage_angle_series,true
0.51,-0.009799445301302967,-0.009799445301302967,Vmag_get_voltage_magnitude_series__angle_get_voltage_angle_series,true
0.52,-0.010079061050882908,-0.010079061050882908,Vmag_get_voltage_magnitude_series__angle_get_voltage_angle_series,true
0.53,-0.010355750983834873,-0.010355750983834873,Vmag_get_voltage_magnitude_series__angle_get_voltage_angle_series,true
0.54,-0.010629076147763683,-0.010629076147763683,Vmag_get_voltage_magnitude_series__angle_get_voltage_angle_series,true
0.55,-0.010898618710904895,-0.010898618710904895,Vmag_get_voltage_magnitude_series__angle_get_voltage_angle_series,true
0.56,-0.011163983652277616,-0.011163983652277616,Vmag_get_voltage_magnitude_series__angle_get_voltage_angle_series,true
0.57,-0.011424800573499812,-0.011424800573499812,Vmag_get_voltage_magnitude_series__angle_get_voltage_angle_series,true
0.58,-0.011680724856729404,-0.011680724856729404,Vmag_get_voltage_magnitude_series__angle_get_voltage_angle_series,true
0.59,-0.011931438776479411,-0.011931438776479411,Vmag_get_voltage_magnitude_series__angle_get_voltage_angle_series,true
0.6,-0.012176652374896088,-0.012176652374896088,Vmag_get_voltage_magnitude_series__angle_get_voltage_angle_series,true
0.61,-0.012416103941708142,-0.012416103941708142,Vmag_get_voltage_magnitude_series__angle_get_voltage_angle_series,true
0.62,-0.012649560520114246,-0.012649560520114246,Vmag_get_voltage_magnitude_series__angle_get_voltage_angle_series,true
0.63,-0.0128768179911667,-0.0128768179911667,Vmag_get_voltage_magnitude_series__angle_get_voltage_angle_series,true
0.64,-0.013097701124737907,-0.013097701124737907,Vmag_get_voltage_magnitude_series__angle_get_voltage_angle_series,true
0.65,-0.013312063397718904,-0.013312063397718904,Vmag_get_voltage_magnitude_series__angle_get_voltage_angle_series,true
0.66,-0.013519786665211345,-0.013519786665211345,Vmag_get_voltage_magnitude_series__angle_get_voltage_angle_series,true
0.67,-0.013720780707205027,-0.013720780707205027,Vmag_get_voltage_magnitude_series__angle_get_voltage_angle_series,true
0.68,-0.013914982631881026,-0.013914982631881026,Vmag_get_voltage_magnitude_series__angle_get_voltage_angle_series,true
0.69,-0.014102356176961282,-0.014102356176961282,Vmag_get_voltage_magnitude_series__angle_get_voltage_angle_series,true
0.7,-0.014282890897005525,-0.014282890897005525,Vmag_get_voltage_magnitude_series__angle_get_voltage_angle_series,true
0.71,-0.014456601251991791,-0.014456601251991791,Vmag_get_voltage_magnitude_series__angle_get_voltage_angle_series,true
0.72,-0.014623525648058227,-0.014623525648058227,Vmag_get_voltage_magnitude_series__angle_get_voltage_angle_series,true
0.73,-0.01478372534918348,-0.01478372534918348,Vmag_get_voltage_magnitude_series__angle_get_voltage_angle_series,true
0.74,-0.014937283380226745,-0.014937283380226745,Vmag_get_voltage_magnitude_series__angle_get_voltage_angle_series,true
0.75,-0.015084303314297087,-0.015084303314297087,Vmag_get_voltage_magnitude_series__angle_get_voltage_angle_series,true
0.76,-0.015224908058564293,-0.015224908058564293,Vmag_get_voltage_magnitude_series__angle_get_voltage_angle_series,true
0.77,-0.01535923858063329,-0.01535923858063329,Vmag_get_voltage_magnitude_series__angle_get_voltage_angle_series,true
0.78,-0.015487452557395273,-0.015487452557395273,Vmag_get_voltage_magnitude_series__angle_get_voltage_angle_series,true
0.79,-0.01560972307786232,-0.01560972307786232,Vmag_get_voltage_magnitude_series__angle_get_voltage_angle_series,true
0.8,-0.015726237229068633,-0.015726237229068633,Vmag_get_voltage_magnitude_series__angle_get_voltage_angle_series,true
0.81,-0.015837194724838743,-0.015837194724838743,Vmag_get_voltage_magnitude_series__angle_get_voltage_angle_series,true
0.82,-0.01594280652536058,-0.01594280652536058,Vmag_get_voltage_magnitude_series__angle_get_voltage_angle_series,true
0.83,-0.016043293378312784,-0.016043293378312784,Vmag_get_voltage_magnitude_series__angle_get_voltage_angle_series,true
0.84,-0.016138884472910887,-0.016138884472910887,Vmag_get_voltage_magnitude_series__angle_get_voltage_angle_series,true
0.85,-0.016229816002213116,-0.016229816002213116,Vmag_get_voltage_magnitude_series__angle_get_voltage_angle_series,true
0.86,-0.01631632979282669,-0.01631632979282669,Vmag_get_voltage_magnitude_series__angle_get_voltage_angle_series,true
0.87,-0.016398671946152073,-0.016398671946152073,Vmag_get_voltage_magnitude_series__angle_get_voltage_angle_series,true
0.88,-0.016477091472082303,-0.016477091472082303,Vmag_get_voltage_magnitude_series__angle_get_voltage_angle_series,true
0.89,-0.01655183901594958,-0.01655183901594958,Vmag_get_voltage_magnitude_series__angle_get_voltage_angle_series,true
0.9,-0.01662316554477305,-0.01662316554477305,Vmag_get_voltage_magnitude_series__angle_get_voltage_angle_series,true
0.91,-0.016691321144593,-0.016691321144593,Vmag_get_voltage_magnitude_series__angle_get_voltage_angle_series,true
0.92,-0.016756553824547955,-0.016756553824547955,Vmag_get_voltage_magnitude_series__angle_get_voltage_angle_series,true
0.93,-0.01681910836141168,-0.01681910836141168,Vmag_get_voltage_magnitude_series__angle_get_voltage_angle_series,true
0.94,-0.016879225264020532,-0.016879225264020532,Vmag_get_voltage_magnitude_series__angle_get_voltage_angle_series,true
0.95,-0.016937139707543312,-0.016937139707543312,Vmag_get_voltage_magnitude_series__angle_get_voltage_angle_series,true
0.96,-0.01699308060658965,-0.01699308060658965,Vmag_get_voltage_magnitude_series__angle_get_voltage_angle_series,true
0.97,-0.017047269719172402,-0.017047269719172402,Vmag_get_voltage_magnitude_series__angle_get_voltage_angle_series,true
0.98,-0.01709992081876005,-0.01709992081876005,Vmag_get_voltage_magnitude_series__angle_get_voltage_angle_series,true
0.99,-0.01715123896828593,-0.01715123896828593,Vmag_get_voltage_magnitude_series__angle_get_voltage_angle_series,true
1.0,-0.01720141982869204,-0.01720141982869204,Vmag_get_voltage_magnitude_series__angle_get_voltage_angle_series,true
1.01,-0.017250649078654305,-0.017250649078654305,Vmag_get_voltage_magnitude_series__angle_get_voltage_angle_series,true
1.02,-0.017299101891477178,-0.017299101891477178,Vmag_get_voltage_magnitude_series__angle_get_voltage_angle_series,true
1.03,-0.017346942501663007,-0.017346942501663007,Vmag_get_voltage_magnitude_series__angle_get_voltage_angle_series,true
1.04,-0.01739432384206698,-0.01739432384206698,Vmag_get_voltage_magnitude_series__angle_get_voltage_angle_series,true
1.05,-0.017441387262632228,-0.017441387262632228,Vmag_get_voltage_magnitude_series__angle_get_voltage_angle_series,true
1.06,-0.017488262332040604,-0.017488262332040604,Vmag_get_voltage_magnitude_series__angle_get_voltage_angle_series,true
1.07,-0.01753506670254383,-0.01753506670254383,Vmag_get_voltage_magnitude_series__angle_get_voltage_angle_series,true
1.08,-0.01758190606354117,-0.01758190606354117,Vmag_get_voltage_magnitude_series__angle_get_voltage_angle_series,true
1.09,-0.017628874162120018,-0.017628874162120018,Vmag_get_voltage_magnitude_series__angle_get_voltage_angle_series,true
1.1,-0.01767605288695149,-0.01767605288695149,Vmag_get_voltage_magnitude_series__angle_get_voltage_angle_series,true
1.11,-0.017723512433107217,-0.017723512433107217,Vmag_get_voltage_magnitude_series__angle_get_voltage_angle_series,true
1.12,-0.017771311513201927,-0.017771311513201927,Vmag_get_voltage_magnitude_series__angle_get_voltage_angle_series,true
1.13,-0.017819497652128785,-0.017819497652128785,Vmag_get_voltage_magnitude_series__angle_get_voltage_angle_series,true
1.14,-0.017868107513073515,-0.017868107513073515,Vmag_get_voltage_magnitude_series__angle_get_voltage_angle_series,true
1.15,-0.01791716728612591,-0.01791716728612591,Vmag_get_voltage_magnitude_series__angle_get_voltage_angle_series,true
1.16,-0.017966693143394438,-0.017966693143394438,Vmag_get_voltage_magnitude_series__angle_get_voltage_angle_series,true
1.17,-0.018016691697365986,-0.018016691697365986,Vmag_get_voltage_magnitude_series__angle_get_voltage_angle_series,true
1.18,-0.018067160538019815,-0.018067160538019815,Vmag_get_voltage_magnitude_series__angle_get_voltage_angle_series,true
1.19,-0.01811808878322535,-0.01811808878322535,Vmag_get_voltage_magnitude_series__angle_get_voltage_angle_series,true
1.2,-0.018169457651122913,-0.018169457651122913,Vmag_get_voltage_magnitude_series__angle_get_voltage_angle_series,true
1.21,-0.018221241094689877,-0.018221241094689877,Vmag_get_voltage_magnitude_series__angle_get_voltage_angle_series,true
1.22,-0.018273406400609135,-0.018273406400609135,Vmag_get_voltage_magnitude_series__angle_get_voltage_angle_series,true
1.23,-0.018325914852202137,-0.018325914852202137,Vmag_get_voltage_magnitude_series__angle_get_voltage_angle_series,true
1.24,-0.01837872237623872,-0.01837872237623872,Vmag_get_voltage_magnitude_series__angle_get_voltage_angle_series,true
1.25,-0.018431780199718455,-0.018431780199718455,Vmag_get_voltage_magnitude_series__angle_get_voltage_angle_series,true
1.26,-0.018485035517933596,-0.018485035517933596,Vmag_get_voltage_magnitude_series__angle_get_voltage_angle_series,true
1.27,-0.018538432139100534,-0.018538432139100534,Vmag_get_voltage_magnitude_series__angle_get_voltage_angle_series,true
1.28,-0.0185919111493091,-0.0185919111493091,Vmag_get_voltage_magnitude_series__angle_get_voltage_angle_series,true
1.29,-0.018645411537691937,-0.018645411537691937,Vmag_get_voltage_magnitude_series__angle_get_voltage_angle_series,true
1.3,-0.01869887082414909,-0.01869887082414909,Vmag_get_voltage_magnitude_series__angle_get_voltage_angle_series,true
1.31,-0.018752225670777577,-0.018752225670777577,Vmag_get_voltage_magnitude_series__angle_get_voltage_angle_series,true
1.32,-0.018805412448704255,-0.018805412448704255,Vmag_get_voltage_magnitude_series__angle_get_voltage_angle_series,true
1.33,-0.018858367812949913,-0.018858367812949913,Vmag_get_voltage_magnitude_series__angle_get_voltage_angle_series,true
1.34,-0.018911029218571445,-0.018911029218571445,Vmag_get_voltage_magnitude_series__angle_get_voltage_angle_series,true
1.35,-0.018963335427524305,-0.018963335427524305,Vmag_get_voltage_magnitude_series__angle_get_voltage_angle_series,true
1.36,-0.019015226976148145,-0.019015226976148145,Vmag_get_voltage_magnitude_series__angle_get_voltage_angle_series,true
1.37,-0.019066646600441377,-0.019066646600441377,Vmag_get_voltage_magnitude_series__angle_get_voltage_angle_series,true
1.38,-0.01911753964359364,-0.01911753964359364,Vmag_get_voltage_magnitude_series__angle_get_voltage_angle_series,true
1.39,-0.019167854406340373,-0.019167854406340373,Vmag_get_voltage_magnitude_series__angle_get_voltage_angle_series,true
1.4,-0.019217542474020632,-0.019217542474020632,Vmag_get_voltage_magnitude_series__angle_get_voltage_angle_series,true
1.41,-0.019266558998211798,-0.019266558998211798,Vmag_get_voltage_magnitude_series__angle_get_voltage_angle_series,true
1.42,-0.019314862937359296,-0.019314862937359296,Vmag_get_voltage_magnitude_series__angle_get_voltage_angle_series,true
1.43,-0.019362417264028313,-0.019362417264028313,Vmag_get_voltage_magnitude_series__angle_get_voltage_angle_series,true
1.44,-0.01940918912690713,-0.01940918912690713,Vmag_get_voltage_magnitude_series__angle_get_voltage_angle_series,true
1.45,-0.019455149978981696,-0.019455149978981696,Vmag_get_voltage_magnitude_series__angle_get_voltage_angle_series,true
1.46,-0.019500275660690774,-0.019500275660690774,Vmag_get_voltage_magnitude_series__angle_get_voltage_angle_series,true
1.47,-0.019544546453184732,-0.019544546453184732,Vmag_get_voltage_magnitude_series__angle_get_voltage_angle_series,true
1.48,-0.0195879470956382,-0.0195879470956382,Vmag_get_voltage_magnitude_series__angle_get_voltage_angle_series,true
1.49,-0.019630466752948897,-0.019630466752948897,Vmag_get_voltage_magnitude_series__angle_get_voltage_angle_series,true
1.5,-0.01967209897385654,-0.01967209897385654,Vmag_get_voltage_magnitude_series__angle_get_voltage_angle_series,true
1.51,-0.01971284159734014,-0.01971284159734014,Vmag_get_voltage_magnitude_series__angle_get_voltage_angle_series,true
1.52,-0.01975269663926685,-0.01975269663926685,Vmag_get_voltage_magnitude_series__angle_get_voltage_angle_series,true
1.53,-0.01979167015123685,-0.01979167015123685,Vmag_get_voltage_magnitude_series__angle_get_voltage_angle_series,true
1.54,-0.019829772046733626,-0.019829772046733626,Vmag_get_voltage_magnitude_series__angle_get_voltage_angle_series,true
1.55,-0.019867015915625535,-0.019867015915625535,Vmag_get_voltage_magnitude_series__angle_get_voltage_angle_series,true
1.56,-0.0199034188056855,-0.0199034188056855,Vmag_get_voltage_magnitude_series__angle_get_voltage_angle_series,true
1.57,-0.019939000992895833,-0.019939000992895833,Vmag_get_voltage_magnitude_series__angle_get_voltage_angle_series,true
1.58,-0.019973785737927692,-0.019973785737927692,Vmag_get_voltage_magnitude_series__angle_get_voltage_angle_series,true
1.59,-0.020007799017098288,-0.020007799017098288,Vmag_get_voltage_magnitude_series__angle_get_voltage_angle_series,true
1.6,-0.020041069259503323,-0.020041069259503323,Vmag_get_voltage_magnitude_series__angle_get_voltage_angle_series,true
1.61,-0.020073627059628396,-0.020073627059628396,Vmag_get_voltage_magnitude_series__angle_get_voltage_angle_series,true
1.62,-0.020105504893377358,-0.020105504893377358,Vmag_get_voltage_magnitude_series__angle_get_voltage_angle_series,true
1.63,-0.020136736828713597,-0.020136736828713597,Vmag_get_voltage_magnitude_series__angle_get_voltage_angle_series,true
1.64,-0.02016735822979164,-0.02016735822979164,Vmag_get_voltage_magnitude_series__angle_get_voltage_angle_series,true
1.65,-0.020197405472191534,-0.020197405472191534,Vmag_get_voltage_magnitude_series__angle_get_voltage_angle_series,true
1.66,-0.020226915647761554,-0.020226915647761554,Vmag_get_voltage_magnitude_series__angle_get_voltage_angle_series,true
1.67,-0.02025592628772148,-0.02025592628772148,Vmag_get_voltage_magnitude_series__angle_get_voltage_angle_series,true
1.68,-0.02028447508471232,-0.02028447508471232,Vmag_get_voltage_magnitude_series__angle_get_voltage_angle_series,true
1.69,-0.02031259962309769,-0.02031259962309769,Vmag_get_voltage_magnitude_series__angle_get_voltage_angle_series,true
1.7,-0.02034033712888093,-0.02034033712888093,Vmag_get_voltage_magnitude_series__angle_get_voltage_angle_series,true
1.71,-0.02036772421886978,-0.02036772421886978,Vmag_get_voltage_magnitude_series__angle_get_voltage_angle_series,true
1.72,-0.020394796674036313,-0.020394796674036313,Vmag_get_voltage_magnitude_series__angle_get_voltage_angle_series,true
1.73,-0.020421589222062126,-0.020421589222062126,Vmag_get_voltage_magnitude_series__angle_get_voltage_angle_series,true
1.74,-0.020448135336420075,-0.020448135336420075,Vmag_get_voltage_magnitude_series__angle_get_voltage_angle_series,true
1.75,-0.020474467054495207,-0.020474467054495207,Vmag_get_voltage_magnitude_series__angle_get_voltage_angle_series,true
1.76,-0.02050061480954068,-0.02050061480954068,Vmag_get_voltage_magnitude_series__angle_get_voltage_angle_series,true
1.77,-0.020526607284093445,-0.020526607284093445,Vmag_get_voltage_magnitude_series__angle_get_voltage_angle_series,true
1.78,-0.020552471279281063,-0.020552471279281063,Vmag_get_voltage_magnitude_series__angle_get_voltage_angle_series,true
1.79,-0.02057823160506868,-0.02057823160506868,Vmag_get_voltage_magnitude_series__angle_get_voltage_angle_series,true
1.8,-0.020603910987860206,-0.020603910987860206,Vmag_get_voltage_magnitude_series__angle_get_voltage_angle_series,true
1.81,-0.02062952999602296,-0.02062952999602296,Vmag_get_voltage_magnitude_series__angle_get_voltage_angle_series,true
1.82,-0.020655106989092356,-0.020655106989092356,Vmag_get_voltage_magnitude_series__angle_get_voltage_angle_series,true
1.83,-0.020680658077497995,-0.020680658077497995,Vmag_get_voltage_magnitude_series__angle_get_voltage_angle_series,true
1.84,-0.020706197107234342,-0.020706197107234342,Vmag_get_voltage_magnitude_series__angle_get_voltage_angle_series,true
1.85,-0.02073173565868864,-0.02073173565868864,Vmag_get_voltage_magnitude_series__angle_get_voltage_angle_series,true
1.86,-0.02075728306170004,-0.02075728306170004,Vmag_get_voltage_magnitude_series__angle_get_voltage_angle_series,true
1.87,-0.02078284642918288,-0.02078284642918288,Vmag_get_voltage_magnitude_series__angle_get_voltage_angle_series,true
1.88,-0.02080843070213123,-0.02080843070213123,Vmag_get_voltage_magnitude_series__angle_get_voltage_angle_series,true
1.89,-0.02083403871335268,-0.02083403871335268,Vmag_get_voltage_magnitude_series__angle_get_voltage_angle_series,true
1.9,-0.020859671259979166,-0.020859671259979166,Vmag_get_voltage_magnitude_series__angle_get_voltage_angle_series,true
1.91,-0.020885327189781387,-0.020885327189781387,Vmag_get_voltage_magnitude_series__angle_get_voltage_angle_series,true
1.92,-0.020911003501171106,-0.020911003501171106,Vmag_get_voltage_magnitude_series__angle_get_voltage_angle_series,true
1.93,-0.020936695446897146,-0.020936695446897146,Vmag_get_voltage_magnitude_series__angle_get_voltage_angle_series,true
1.94,-0.02096239665242928,-0.02096239665242928,Vmag_get_voltage_magnitude_series__angle_get_voltage_angle_series,true
1.95,-0.02098809923848609,-0.02098809923848609,Vmag_get_voltage_magnitude_series__angle_get_voltage_angle_series,true
1.96,-0.02101379394873946,-0.02101379394873946,Vmag_get_voltage_magnitude_series__angle_get_voltage_angle_series,true
1.97,-0.02103947028798424,-0.02103947028798424,Vmag_get_voltage_magnitude_series__angle_get_voltage_angle_series,true
1.98,-0.021065116655784748,-0.021065116655784748,Vmag_get_voltage_magnitude_series__angle_get_voltage_angle_series,true
1.99,-0.021090720490088786,-0.021090720490088786,Vmag_get_voltage_magnitude_series__angle_get_voltage_angle_series,true
...
